Version 4
SHEET 1 880 680
WIRE -1232 -208 -1440 -208
WIRE -880 -208 -1232 -208
WIRE -784 -208 -880 -208
WIRE -912 -192 -1200 -192
WIRE -784 -192 -784 -208
WIRE -1168 -144 -1376 -144
WIRE -880 -144 -880 -208
WIRE -880 -144 -944 -144
WIRE -1440 -112 -1440 -208
WIRE -1200 -80 -1200 -192
WIRE -1168 -80 -1200 -80
WIRE -784 -80 -784 -112
WIRE -784 -80 -944 -80
WIRE 160 -80 16 -80
WIRE 256 -80 160 -80
WIRE 384 -80 336 -80
WIRE 400 -80 384 -80
WIRE 544 -80 464 -80
WIRE 640 -80 544 -80
WIRE 736 -80 640 -80
WIRE 784 -80 736 -80
WIRE -784 -48 -784 -80
WIRE -1376 -16 -1376 -144
WIRE -1200 -16 -1248 -16
WIRE -1168 -16 -1200 -16
WIRE -912 -16 -912 -192
WIRE -912 -16 -944 -16
WIRE -832 -16 -912 -16
WIRE 16 0 16 -80
WIRE 160 16 160 -16
WIRE 544 16 544 -80
WIRE 640 16 640 -80
WIRE 736 16 736 -80
WIRE -1440 32 -1440 -32
WIRE 384 32 384 -80
WIRE 384 32 256 32
WIRE -1232 48 -1232 -208
WIRE -1168 48 -1232 48
WIRE -896 48 -944 48
WIRE -832 48 -832 -16
WIRE -784 48 -784 32
WIRE -784 48 -832 48
WIRE -784 64 -784 48
WIRE 256 128 256 32
WIRE 368 128 256 128
WIRE 16 144 16 80
WIRE -896 160 -896 112
WIRE -784 192 -784 128
WIRE 112 192 -96 192
WIRE 208 192 128 192
WIRE 544 192 544 80
WIRE 640 192 640 80
WIRE 736 192 736 96
WIRE -1248 224 -1248 -16
WIRE -96 224 -96 192
WIRE -96 224 -1248 224
WIRE 256 288 256 224
WIRE 368 288 368 208
FLAG 160 16 0
FLAG 256 288 0
FLAG 368 288 0
FLAG 544 192 0
FLAG 640 192 0
FLAG 736 192 0
FLAG 784 -80 Vout
FLAG 128 192 555_in
FLAG 16 144 0
FLAG -896 160 0
FLAG -1376 -16 0
FLAG -784 192 0
FLAG -1440 32 0
FLAG -1200 -16 out
SYMBOL njf 208 128 R0
SYMATTR InstName J1
SYMBOL res 352 112 R0
SYMATTR InstName R1
SYMATTR Value 100k
SYMBOL ind 240 -64 R270
WINDOW 0 32 56 VTop 2
WINDOW 3 5 56 VBottom 2
SYMATTR InstName L1
SYMATTR Value 100m
SYMBOL cap 144 -80 R0
SYMATTR InstName C1
SYMATTR Value 10µ
SYMBOL schottky 400 -64 R270
WINDOW 0 32 32 VTop 2
WINDOW 3 0 32 VBottom 2
SYMATTR InstName D1
SYMBOL cap 624 16 R0
SYMATTR InstName C2
SYMATTR Value 0.1µ
SYMBOL zener 560 80 R180
WINDOW 0 24 64 Left 2
WINDOW 3 24 0 Left 2
SYMATTR InstName D2
SYMBOL res 720 0 R0
SYMATTR InstName R2
SYMATTR Value 10k
SYMBOL voltage 16 -16 R0
WINDOW 123 24 124 Left 2
WINDOW 39 24 152 Left 2
SYMATTR Value2 AC 4.5 0
SYMATTR SpiceLine Rser=0 Cpar=0
SYMATTR InstName V1
SYMATTR Value PULSE()
SYMBOL cap -912 48 R0
SYMATTR InstName C3
SYMATTR Value 0.1µ
SYMBOL voltage -1440 -128 R0
WINDOW 123 0 0 Left 0
WINDOW 39 0 0 Left 0
SYMATTR InstName V2
SYMATTR Value 5
SYMBOL res -800 -208 R0
SYMATTR InstName R3
SYMATTR Value 5k
SYMBOL res -800 -64 R0
SYMATTR InstName R4
SYMATTR Value 5k
SYMBOL cap -800 64 R0
SYMATTR InstName C5
SYMATTR Value 0.15µ
SYMBOL Misc\\NE555 -1056 -48 R0
SYMATTR InstName U1
TEXT -1472 312 Left 2 !.tran 0 10m 0
