Version 4
SHEET 1 2532 680
WIRE 2208 -624 2080 -624
WIRE 2352 -624 2208 -624
WIRE 2512 -624 2352 -624
WIRE 2512 -608 2512 -624
WIRE 2208 -592 2208 -624
WIRE 2352 -592 2352 -624
WIRE 2208 -464 2208 -512
WIRE 2352 -464 2352 -528
WIRE -336 -448 -672 -448
WIRE 2080 -416 2080 -624
WIRE 2080 -416 2032 -416
WIRE 2144 -416 2080 -416
WIRE 2256 -416 2208 -416
WIRE -336 -400 -336 -448
WIRE -336 -400 -432 -400
WIRE -224 -400 -336 -400
WIRE -432 -368 -432 -400
WIRE -224 -368 -224 -400
WIRE 2256 -336 2256 -416
WIRE 2320 -336 2256 -336
WIRE -672 -320 -672 -448
WIRE -1648 -288 -1792 -288
WIRE -1232 -288 -1648 -288
WIRE -1136 -288 -1232 -288
WIRE 2320 -288 2320 -336
WIRE -1264 -272 -1552 -272
WIRE -1136 -272 -1136 -288
WIRE -432 -272 -432 -304
WIRE -432 -272 -544 -272
WIRE -224 -256 -224 -304
WIRE -64 -256 -224 -256
WIRE 192 -256 -64 -256
WIRE 336 -256 192 -256
WIRE 192 -240 192 -256
WIRE 1968 -240 1968 -416
WIRE 2080 -240 2032 -240
WIRE 2144 -240 2080 -240
WIRE 2256 -240 2256 -336
WIRE 2256 -240 2208 -240
WIRE -1520 -224 -1728 -224
WIRE -1232 -224 -1232 -288
WIRE -1232 -224 -1296 -224
WIRE -544 -224 -544 -272
WIRE -432 -208 -432 -272
WIRE -224 -208 -224 -256
WIRE -1792 -192 -1792 -288
WIRE 864 -176 768 -176
WIRE 1008 -176 864 -176
WIRE 1136 -176 1088 -176
WIRE 1360 -176 1136 -176
WIRE 1504 -176 1424 -176
WIRE 1584 -176 1504 -176
WIRE 1744 -176 1584 -176
WIRE 2080 -176 2080 -240
WIRE -1552 -160 -1552 -272
WIRE -1520 -160 -1552 -160
WIRE -1136 -160 -1136 -192
WIRE -1136 -160 -1296 -160
WIRE -1008 -160 -1136 -160
WIRE 336 -144 336 -256
WIRE 768 -144 768 -176
WIRE 768 -144 336 -144
WIRE -1136 -128 -1136 -160
WIRE -1008 -128 -1008 -160
WIRE 192 -128 192 -176
WIRE 192 -128 176 -128
WIRE -432 -112 -432 -144
WIRE -336 -112 -432 -112
WIRE -224 -112 -224 -144
WIRE -224 -112 -336 -112
WIRE -64 -112 -64 -176
WIRE 864 -112 864 -128
WIRE 1504 -112 1504 -176
WIRE 1744 -112 1744 -176
WIRE -1728 -96 -1728 -224
WIRE -1552 -96 -1600 -96
WIRE -1520 -96 -1552 -96
WIRE -1264 -96 -1264 -272
WIRE -1264 -96 -1296 -96
WIRE -1184 -96 -1264 -96
WIRE 1584 -96 1584 -176
WIRE 2144 -96 2000 -96
WIRE 2368 -96 2144 -96
WIRE 2464 -96 2368 -96
WIRE 2368 -80 2368 -96
WIRE 2464 -80 2464 -96
WIRE -672 -64 -672 -240
WIRE 864 -64 864 -112
WIRE 2368 -64 2368 -80
WIRE -1792 -48 -1792 -112
WIRE -336 -48 -336 -112
WIRE -1648 -32 -1648 -288
WIRE -1520 -32 -1648 -32
WIRE -1232 -32 -1296 -32
WIRE -1232 -16 -1232 -32
WIRE 2144 -16 2144 -96
WIRE 2144 0 2144 -16
WIRE -1136 16 -1136 -64
WIRE -1104 16 -1136 16
WIRE -1008 16 -1008 -64
WIRE -1008 16 -1024 16
WIRE 1136 32 1136 -176
WIRE 1136 32 1024 32
WIRE 1248 32 1136 32
WIRE 1744 32 1744 -32
WIRE 1024 48 1024 32
WIRE 1504 48 1504 -48
WIRE 1584 48 1584 -32
WIRE 1248 64 1248 32
WIRE 960 80 896 80
WIRE -1232 96 -1232 48
WIRE -1072 96 -1072 64
WIRE -1072 96 -1136 96
WIRE 960 112 960 80
WIRE 976 112 960 112
WIRE -1184 128 -1184 -96
WIRE -1136 128 -1136 96
WIRE -1136 128 -1184 128
WIRE 896 128 896 80
WIRE 896 128 352 128
WIRE -1136 144 -1136 128
WIRE 2144 240 2144 48
WIRE 1024 256 1024 144
WIRE 1248 256 1248 144
WIRE 2368 256 2368 -16
WIRE 2464 256 2464 0
WIRE -1136 272 -1136 208
WIRE -1600 320 -1600 -96
WIRE 352 320 352 128
WIRE 352 320 -1600 320
FLAG 1024 256 0
FLAG -1728 -96 0
FLAG -1136 272 0
FLAG -1792 -48 0
FLAG -1552 -96 out
FLAG -544 -224 0
FLAG -64 -112 0
FLAG 192 -128 0
FLAG -672 -64 0
FLAG -336 -48 0
FLAG -1232 96 0
FLAG 1248 256 0
FLAG 864 -64 0
FLAG 2080 -176 0
FLAG 2320 -288 0
FLAG 2208 -464 0
FLAG 2352 -464 0
FLAG 2144 240 0
FLAG 2464 256 0
FLAG 2368 256 0
FLAG 1584 48 0
FLAG 1504 48 0
FLAG 1744 32 0
SYMBOL ind 992 -160 R270
WINDOW 0 32 56 VTop 2
WINDOW 3 5 56 VBottom 2
SYMATTR InstName L1
SYMATTR Value 100m
SYMBOL voltage -1792 -208 R0
WINDOW 123 0 0 Left 0
WINDOW 39 0 0 Left 0
SYMATTR InstName V2
SYMATTR Value 10
SYMBOL cap -1152 144 R0
SYMATTR InstName C5
SYMATTR Value 0.1µ
SYMBOL diode -240 -368 R0
WINDOW 3 19 62 Left 2
SYMATTR Value 1N4007
SYMATTR InstName D3
SYMBOL diode -208 -144 R180
WINDOW 0 24 64 Left 2
WINDOW 3 24 0 Left 2
SYMATTR InstName D4
SYMATTR Value 1N4007
SYMBOL diode -416 -304 R180
WINDOW 0 24 64 Left 2
WINDOW 3 24 0 Left 2
SYMATTR InstName D5
SYMATTR Value 1N4007
SYMBOL diode -448 -208 R0
SYMATTR InstName D6
SYMATTR Value 1N4007
SYMBOL res -80 -272 R0
SYMATTR InstName R5
SYMATTR Value 10k
SYMBOL cap 176 -240 R0
SYMATTR InstName C6
SYMATTR Value 220µ
SYMBOL voltage -672 -336 R0
WINDOW 123 0 0 Left 0
WINDOW 39 0 0 Left 0
SYMATTR InstName V3
SYMATTR Value SINE(0 10.066 60)
SYMBOL polcap 848 -176 R0
WINDOW 3 24 56 Left 2
SYMATTR Value 10µ
SYMATTR InstName C1
SYMATTR Description Capacitor
SYMATTR Type cap
SYMATTR SpiceLine V=10 Irms=17m Rser=1.9384 Lser=846.868p
SYMBOL diode 2032 -256 R90
WINDOW 0 0 32 VBottom 2
WINDOW 3 32 32 VTop 2
SYMATTR InstName D1
SYMATTR Value 1N4007
SYMBOL diode 1968 -400 R270
WINDOW 0 32 32 VTop 2
WINDOW 3 0 32 VBottom 2
SYMATTR InstName D2
SYMATTR Value 1N4007
SYMBOL diode 2208 -432 R90
WINDOW 0 0 32 VBottom 2
WINDOW 3 32 32 VTop 2
SYMATTR InstName D7
SYMATTR Value 1N4007
SYMBOL diode 2144 -224 R270
WINDOW 0 32 32 VTop 2
WINDOW 3 0 32 VBottom 2
SYMATTR InstName D8
SYMATTR Value 1N4007
SYMBOL res 2192 -608 R0
SYMATTR InstName R2
SYMATTR Value 10k
SYMBOL cap 2336 -592 R0
SYMATTR InstName C2
SYMATTR Value 33µ
SYMBOL diode 2160 48 R180
WINDOW 0 24 64 Left 2
WINDOW 3 24 0 Left 2
SYMATTR InstName D10
SYMATTR Value 1N4148
SYMATTR Description Zener Diode
SYMATTR Type zener
SYMBOL res 2448 -96 R0
SYMATTR InstName R6
SYMATTR Value 10k
SYMBOL cap 2352 -80 R0
SYMATTR InstName C4
SYMATTR Value 0.1µ
SYMBOL diode 1936 -80 R270
WINDOW 0 32 32 VTop 2
WINDOW 3 0 32 VBottom 2
SYMATTR InstName D9
SYMATTR Value 1N4148
SYMBOL Misc\\NE555 -1408 -128 R0
SYMATTR InstName U1
SYMBOL cap 1568 -96 R0
SYMATTR InstName C7
SYMATTR Value 0.1µ
SYMATTR SpiceLine V=6.3 Irms=15.2 Rser=0.00332739 Lser=0
SYMBOL diode 1360 -160 R270
WINDOW 0 32 32 VTop 2
WINDOW 3 0 32 VBottom 2
SYMATTR InstName D11
SYMATTR Value 1N4148
SYMBOL zener 1520 -48 R180
WINDOW 0 24 64 Left 2
WINDOW 3 24 0 Left 2
SYMATTR InstName D12
SYMBOL res 1232 48 R0
SYMATTR InstName R1
SYMATTR Value 100k
SYMBOL njf 976 48 R0
SYMATTR InstName J1
SYMATTR Value MPF102
SYMBOL res 1728 -128 R0
SYMATTR InstName R7
SYMATTR Value 10k
SYMBOL diode -1120 -64 R180
WINDOW 0 24 64 Left 2
WINDOW 3 24 0 Left 2
SYMATTR InstName D13
SYMATTR Value 1N4148
SYMBOL diode -1024 -128 R0
SYMATTR InstName D14
SYMATTR Value 1N4148
SYMBOL res -1152 -288 R0
SYMATTR InstName R3
SYMATTR Value 100k
SYMBOL pot -1008 0 R90
SYMATTR InstName xU2
SYMATTR Value Rtot=100K wiper=50K
SYMBOL cap -1248 -16 R0
SYMATTR InstName C3
SYMATTR Value 100n
TEXT -1824 232 Left 2 !.tran 0 10m 0
TEXT -1032 16 Left 2 !.include pot.sub
