Version 4
SHEET 1 2532 680
WIRE 2208 -624 2080 -624
WIRE 2352 -624 2208 -624
WIRE 2512 -624 2352 -624
WIRE 2512 -608 2512 -624
WIRE 2208 -592 2208 -624
WIRE 2352 -592 2352 -624
WIRE 2208 -464 2208 -512
WIRE 2352 -464 2352 -528
WIRE -336 -448 -672 -448
WIRE 2080 -416 2080 -624
WIRE 2080 -416 2032 -416
WIRE 2144 -416 2080 -416
WIRE 2256 -416 2208 -416
WIRE -336 -400 -336 -448
WIRE -336 -400 -432 -400
WIRE -224 -400 -336 -400
WIRE -432 -368 -432 -400
WIRE -224 -368 -224 -400
WIRE 2256 -336 2256 -416
WIRE 2320 -336 2256 -336
WIRE -672 -320 -672 -448
WIRE 2320 -288 2320 -336
WIRE -432 -272 -432 -304
WIRE -432 -272 -544 -272
WIRE -224 -256 -224 -304
WIRE -64 -256 -224 -256
WIRE 192 -256 -64 -256
WIRE 336 -256 192 -256
WIRE 192 -240 192 -256
WIRE 1968 -240 1968 -416
WIRE 2080 -240 2032 -240
WIRE 2144 -240 2080 -240
WIRE 2256 -240 2256 -336
WIRE 2256 -240 2208 -240
WIRE -544 -224 -544 -272
WIRE -1296 -208 -1440 -208
WIRE -880 -208 -1296 -208
WIRE -784 -208 -880 -208
WIRE -432 -208 -432 -272
WIRE -224 -208 -224 -256
WIRE -912 -192 -1200 -192
WIRE -784 -192 -784 -208
WIRE 640 -176 576 -176
WIRE 816 -176 640 -176
WIRE 944 -176 896 -176
WIRE 1168 -176 944 -176
WIRE 1312 -176 1232 -176
WIRE 1392 -176 1312 -176
WIRE 1552 -176 1392 -176
WIRE 2080 -176 2080 -240
WIRE -1168 -144 -1376 -144
WIRE -880 -144 -880 -208
WIRE -880 -144 -944 -144
WIRE 336 -144 336 -256
WIRE 576 -144 576 -176
WIRE 576 -144 336 -144
WIRE 192 -128 192 -176
WIRE 192 -128 176 -128
WIRE -1440 -112 -1440 -208
WIRE -432 -112 -432 -144
WIRE -336 -112 -432 -112
WIRE -224 -112 -224 -144
WIRE -224 -112 -336 -112
WIRE -64 -112 -64 -176
WIRE 1312 -112 1312 -176
WIRE 1392 -96 1392 -176
WIRE 2144 -96 2000 -96
WIRE 2368 -96 2144 -96
WIRE 2464 -96 2368 -96
WIRE -1200 -80 -1200 -192
WIRE -1168 -80 -1200 -80
WIRE -784 -80 -784 -112
WIRE -784 -80 -944 -80
WIRE 2368 -80 2368 -96
WIRE 2464 -80 2464 -96
WIRE -672 -64 -672 -240
WIRE 2368 -64 2368 -80
WIRE -784 -48 -784 -80
WIRE -336 -48 -336 -112
WIRE 640 -48 640 -112
WIRE -1376 -16 -1376 -144
WIRE -1200 -16 -1248 -16
WIRE -1168 -16 -1200 -16
WIRE -912 -16 -912 -192
WIRE -912 -16 -944 -16
WIRE -832 -16 -912 -16
WIRE 2144 -16 2144 -96
WIRE 2144 0 2144 -16
WIRE -1440 32 -1440 -32
WIRE 944 32 944 -176
WIRE 944 32 832 32
WIRE 1056 32 944 32
WIRE -1296 48 -1296 -208
WIRE -1168 48 -1296 48
WIRE -880 48 -944 48
WIRE -832 48 -832 -16
WIRE -784 48 -784 32
WIRE -784 48 -832 48
WIRE 832 48 832 32
WIRE 1312 48 1312 -48
WIRE 1392 48 1392 -32
WIRE -784 64 -784 48
WIRE 1056 64 1056 32
WIRE 768 80 704 80
WIRE 768 112 768 80
WIRE 784 112 768 112
WIRE 704 128 704 80
WIRE 704 128 352 128
WIRE -880 176 -880 112
WIRE -784 192 -784 128
WIRE -1248 224 -1248 -16
WIRE 352 224 352 128
WIRE 352 224 -1248 224
WIRE 2144 240 2144 48
WIRE 832 256 832 144
WIRE 1056 256 1056 144
WIRE 2368 256 2368 -16
WIRE 2464 256 2464 0
FLAG 832 256 0
FLAG -1376 -16 0
FLAG -784 192 0
FLAG -1440 32 0
FLAG -1200 -16 out
FLAG -544 -224 0
FLAG -64 -112 0
FLAG 192 -128 0
FLAG -672 -64 0
FLAG -336 -48 0
FLAG -880 176 0
FLAG 1056 256 0
FLAG 640 -48 0
FLAG 2080 -176 0
FLAG 2320 -288 0
FLAG 2208 -464 0
FLAG 2352 -464 0
FLAG 2144 240 0
FLAG 2464 256 0
FLAG 2368 256 0
FLAG 1392 48 0
FLAG 1312 48 0
SYMBOL ind 800 -160 R270
WINDOW 0 32 56 VTop 2
WINDOW 3 5 56 VBottom 2
SYMATTR InstName L1
SYMATTR Value 100m
SYMBOL voltage -1440 -128 R0
WINDOW 123 0 0 Left 0
WINDOW 39 0 0 Left 0
SYMATTR InstName V2
SYMATTR Value 10
SYMBOL res -800 -208 R0
SYMATTR InstName R3
SYMATTR Value 9k
SYMBOL res -800 -64 R0
SYMATTR InstName R4
SYMATTR Value 1k
SYMBOL cap -800 64 R0
SYMATTR InstName C5
SYMATTR Value 0.15µ
SYMBOL diode -240 -368 R0
WINDOW 3 19 62 Left 2
SYMATTR Value 1N4007
SYMATTR InstName D3
SYMBOL diode -208 -144 R180
WINDOW 0 24 64 Left 2
WINDOW 3 24 0 Left 2
SYMATTR InstName D4
SYMATTR Value 1N4007
SYMBOL diode -416 -304 R180
WINDOW 0 24 64 Left 2
WINDOW 3 24 0 Left 2
SYMATTR InstName D5
SYMATTR Value 1N4007
SYMBOL diode -448 -208 R0
SYMATTR InstName D6
SYMATTR Value 1N4007
SYMBOL res -80 -272 R0
SYMATTR InstName R5
SYMATTR Value 10k
SYMBOL cap 176 -240 R0
SYMATTR InstName C6
SYMATTR Value 33µ
SYMBOL voltage -672 -336 R0
WINDOW 123 0 0 Left 0
WINDOW 39 0 0 Left 0
SYMATTR InstName V3
SYMATTR Value SINE(0 10.066 60)
SYMBOL cap -896 48 R0
SYMATTR InstName C3
SYMATTR Value 0.01µ
SYMBOL polcap 624 -176 R0
WINDOW 3 24 56 Left 2
SYMATTR Value 50µ
SYMATTR InstName C1
SYMATTR Description Capacitor
SYMATTR Type cap
SYMATTR SpiceLine V=10 Irms=17m Rser=1.9384 Lser=846.868p
SYMBOL diode 2032 -256 R90
WINDOW 0 0 32 VBottom 2
WINDOW 3 32 32 VTop 2
SYMATTR InstName D1
SYMATTR Value 1N4007
SYMBOL diode 1968 -400 R270
WINDOW 0 32 32 VTop 2
WINDOW 3 0 32 VBottom 2
SYMATTR InstName D2
SYMATTR Value 1N4007
SYMBOL diode 2208 -432 R90
WINDOW 0 0 32 VBottom 2
WINDOW 3 32 32 VTop 2
SYMATTR InstName D7
SYMATTR Value 1N4007
SYMBOL diode 2144 -224 R270
WINDOW 0 32 32 VTop 2
WINDOW 3 0 32 VBottom 2
SYMATTR InstName D8
SYMATTR Value 1N4007
SYMBOL res 2192 -608 R0
SYMATTR InstName R2
SYMATTR Value 10k
SYMBOL cap 2336 -592 R0
SYMATTR InstName C2
SYMATTR Value 33µ
SYMBOL diode 2160 48 R180
WINDOW 0 24 64 Left 2
WINDOW 3 24 0 Left 2
SYMATTR InstName D10
SYMATTR Value 1N4148
SYMATTR Description Zener Diode
SYMATTR Type zener
SYMBOL res 2448 -96 R0
SYMATTR InstName R6
SYMATTR Value 10k
SYMBOL cap 2352 -80 R0
SYMATTR InstName C4
SYMATTR Value 0.1µ
SYMBOL njf 784 48 R0
SYMATTR InstName J1
SYMATTR Value MPF102
SYMBOL diode 1936 -80 R270
WINDOW 0 32 32 VTop 2
WINDOW 3 0 32 VBottom 2
SYMATTR InstName D9
SYMATTR Value 1N4148
SYMBOL Misc\\NE555 -1056 -48 R0
SYMATTR InstName U1
SYMBOL cap 1376 -96 R0
SYMATTR InstName C7
SYMATTR Value 100µ
SYMBOL diode 1168 -160 R270
WINDOW 0 32 32 VTop 2
WINDOW 3 0 32 VBottom 2
SYMATTR InstName D11
SYMATTR Value 1N4148
SYMBOL zener 1328 -48 R180
WINDOW 0 24 64 Left 2
WINDOW 3 24 0 Left 2
SYMATTR InstName D12
SYMBOL res 1040 48 R0
SYMATTR InstName R1
SYMATTR Value 100k
TEXT -1472 312 Left 2 !.tran 0 300m 0
